contingency/peak_load/40pc/TNB_DUMA_VLN.Txt

SYMMETRICAL COMPONENT VOLTAGES BY BUS (for 3-phase buses)

Bus               Mag:   V1 (kV)    p.u.     V2 (kV)   %V2/V1    V0 (kV)    %V0/V1

ppu_duma_33kv        18.96     0.9951  9.242E-009  4.875E-008 1.239E-009 6.537E-009
ppu_duma_11kv        5.992     0.9435  3.135E-009  5.232E-008 9.515E-011 1.588E-009
rpplngi2             6.024     0.9485  3.149E-009  5.227E-008 9.648E-011 1.602E-009
pdtjlnmasjid         6.048     0.9523  3.16E-009  5.224E-008 9.782E-011 1.618E-009
bella                6.064     0.9548  3.167E-009  5.223E-008 9.876E-011 1.629E-009
pstpdgn              6.072      0.956  3.17E-009  5.222E-008 9.924E-011 1.634E-009
pamdra               5.997     0.9443  3.138E-009  5.232E-008 9.524E-011 1.588E-009
duma4                6.015     0.9471  3.145E-009  5.23E-008 9.919E-011 1.649E-009
plsdra               6.051     0.9527  3.162E-009  5.226E-008 1.16E-010 1.917E-009
ssu_uptwres_ir1      6.054     0.9532  3.163E-009  5.225E-008 1.164E-010 1.922E-009
atria_1              6.055     0.9533  3.163E-009  5.225E-008 9.709E-011 1.604E-009
hawker               6.064     0.9549  3.168E-009  5.224E-008 1.111E-010 1.832E-009
prmte                    6     0.9448  3.135E-009  5.225E-008 1.036E-010 1.726E-009
prmta                6.003     0.9452  3.136E-009  5.224E-008 1.04E-010 1.733E-009
pmontb               6.007     0.9459  3.138E-009  5.223E-008 1.072E-010 1.784E-009
duma7                6.008      0.946  3.143E-009  5.231E-008 9.526E-011 1.586E-009
haus                 6.047     0.9522  3.162E-009  5.229E-008 9.901E-011 1.637E-009
duma6                6.158     0.9696  3.217E-009  5.224E-008 1.395E-010 2.265E-009
duma13               6.262     0.9861  3.27E-009  5.221E-008 1.944E-010 3.104E-009
ssu_duma5_im2        6.273     0.9878  3.275E-009  5.221E-008 1.952E-010 3.111E-009
plngi_b              6.021     0.9481  3.148E-009  5.228E-008 9.547E-011 1.586E-009
plngi_d              6.038     0.9507  3.155E-009  5.226E-008 9.571E-011 1.585E-009
pdtlitrak            6.109      0.962  3.189E-009  5.22E-008 9.915E-011 1.623E-009
duma12               6.157     0.9694  3.211E-009  5.215E-008 1.011E-010 1.642E-009
tmngh4               6.205      0.977  3.233E-009  5.211E-008 1.221E-010 1.967E-009
ssu_tmegah3_ir1      6.224       0.98  3.242E-009  5.209E-008 1.335E-010 2.145E-009
tmngh2               6.231     0.9812  3.245E-009  5.208E-008 1.387E-010 2.226E-009
sprk9                6.051     0.9529  3.162E-009  5.225E-008 9.927E-011 1.64E-009
bomba                6.056     0.9535  3.164E-009  5.225E-008 1.013E-010 1.673E-009
sprk8                6.067     0.9553  3.169E-009  5.224E-008 1.071E-010 1.765E-009
ssu_uptwres_im2      6.005     0.9455  3.14E-009  5.229E-008 9.66E-011 1.609E-009
maybank              6.032     0.9497  3.152E-009  5.226E-008 9.763E-011 1.619E-009
duma8                6.037     0.9506  3.154E-009  5.225E-008 9.933E-011 1.645E-009
ssu_dsarcntr_ir1     6.008      0.946  3.142E-009  5.23E-008 9.529E-011 1.586E-009
duma9                 6.06     0.9542  3.166E-009  5.224E-008 9.789E-011 1.615E-009
duma1                6.088     0.9586  3.178E-009  5.221E-008 9.914E-011 1.629E-009
elite                6.098     0.9601  3.183E-009  5.22E-008 9.961E-011 1.634E-009
duma10               6.054     0.9532  3.163E-009  5.225E-008 9.668E-011 1.597E-009
balaipolis           6.054     0.9533  3.163E-009  5.225E-008 9.67E-011 1.597E-009
ppu_duma_vcb1            0          0          0          0         0         0
